/*--------------------------------*- C++ -*----------------------------------*\
| =========                 |                                                 |
| \\      /  F ield         | foam-extend: Open Source CFD                    |
|  \\    /   O peration     | Version:     4.0                                |
|   \\  /    A nd           | Web:         http://www.foam-extend.org         |
|    \\/     M anipulation  |                                                 |
\*---------------------------------------------------------------------------*/
FoamFile
{
    version     2.0;
    format      ascii;
    class       dictionary;
    location    "system";
    object      faSchemes;
}
// * * * * * * * * * * * * * * * * * * * * * * * * * * * * * * * * * * * * * //

ddtSchemes
{
    ddt(h,Us) Euler;
    ddt(h) Euler;
}

gradSchemes
{
    default Gauss linear;
}

divSchemes
{
    default             none;
    div(phis,h)         Gauss Gamma 0.5;
    div(phi2s,Us)     Gauss upwind;
    div(phiCs,Us)     Gauss upwind;
    div(phiCs,UBs)   Gauss upwind;
    //div(phi2s,Us)     Gauss linearUpwind;
    //div(phiCs,Us)     Gauss linearUpwind;
    //div(phiCs,UBs)   Gauss linearUpwind;
}

laplacianSchemes
{
    default none;
    laplacian(h) Gauss linear corrected;
    laplacian(Gammas,Us) Gauss linear corrected;
}

interpolationSchemes
{
    default linear;
}

snGradSchemes
{
    default corrected;
}


// ************************************************************************* //
