/*--------------------------------*- C++ -*----------------------------------*\
| =========                 |                                                 |
| \\      /  F ield         | foam-extend: Open Source CFD                    |
|  \\    /   O peration     | Version:     4.0                                |
|   \\  /    A nd           | Web:         http://www.foam-extend.org         |
|    \\/     M anipulation  |                                                 |
\*---------------------------------------------------------------------------*/
FoamFile
{
    version     2.0;
    format      ascii;
    class       dictionary;
    location    "system";
    object      physicalParameters;
}
// * * * * * * * * * * * * * * * * * * * * * * * * * * * * * * * * * * * * * //
// nozzleType
nozzleType "circular";

h0 h0 [ 0 1 0 0 0 0 0] 1e-10;

hTol hTol [ 0 1 0 0 0 0 0] 1e-5;


Omega (0 0 52.36);

Oxyz     (0 0 0);

//Nozzle initial location
Jxyz0	(0 0 0);

//nozzle velocity magnitude, i.e. the magnitude of velocity at which nozzle moves, do not confuse it with jet velocity
NozzleVelocity NozzleVelocity [ 0 1 -1 0 0 0 0]	0.0;

// unit tangential vector of nozzle motion path
NozzleMotionDir		(0.70710678 0.70710678 0);
	
JetR JetR  [0 1 0 0 0 0 0]	0.005;

JetH JetH  [0 1 0 0 0 0 0]	0.0066;

JetW JetW  [0 1 0 0 0 0 0]	0.001;

JetL JetL  [0 1 0 0 0 0 0]	0.11;

JetAngle JetAngle  [0 0 0 0 0 0 0]	0.785398163; //45 degree


hFixedVal hFixedVal  [0 1 0 0 0 0 0]	0.0005;

UMagFixedVal UMagFixedVal  [0 1 -1 0 0 0 0]	1.5;


// ************************************************************************* //
